* NGSPICE file created from sscc_top.ext - technology: sky130A

* Black-box entry subcircuit for sky130_fd_sc_hd__o31a_1 abstract view
.subckt sky130_fd_sc_hd__o31a_1 A1 A2 A3 B1 VGND VNB VPB VPWR X
.ends

* Black-box entry subcircuit for sky130_fd_sc_hd__clkbuf_1 abstract view
.subckt sky130_fd_sc_hd__clkbuf_1 A VGND VNB VPB VPWR X
.ends

* Black-box entry subcircuit for sky130_fd_sc_hd__or3b_1 abstract view
.subckt sky130_fd_sc_hd__or3b_1 A B C_N VGND VNB VPB VPWR X
.ends

* Black-box entry subcircuit for sky130_fd_sc_hd__a22o_1 abstract view
.subckt sky130_fd_sc_hd__a22o_1 A1 A2 B1 B2 VGND VNB VPB VPWR X
.ends

* Black-box entry subcircuit for sky130_fd_sc_hd__decap_4 abstract view
.subckt sky130_fd_sc_hd__decap_4 VGND VNB VPB VPWR
.ends

* Black-box entry subcircuit for sky130_fd_sc_hd__a31o_1 abstract view
.subckt sky130_fd_sc_hd__a31o_1 A1 A2 A3 B1 VGND VNB VPB VPWR X
.ends

* Black-box entry subcircuit for sky130_fd_sc_hd__tapvpwrvgnd_1 abstract view
.subckt sky130_fd_sc_hd__tapvpwrvgnd_1 VGND VPWR
.ends

* Black-box entry subcircuit for sky130_fd_sc_hd__fill_1 abstract view
.subckt sky130_fd_sc_hd__fill_1 VGND VNB VPB VPWR
.ends

* Black-box entry subcircuit for sky130_fd_sc_hd__o21ai_1 abstract view
.subckt sky130_fd_sc_hd__o21ai_1 A1 A2 B1 VGND VNB VPB VPWR Y
.ends

* Black-box entry subcircuit for sky130_fd_sc_hd__decap_8 abstract view
.subckt sky130_fd_sc_hd__decap_8 VGND VNB VPB VPWR
.ends

* Black-box entry subcircuit for sky130_fd_sc_hd__fill_2 abstract view
.subckt sky130_fd_sc_hd__fill_2 VGND VNB VPB VPWR
.ends

* Black-box entry subcircuit for sky130_fd_sc_hd__and2b_1 abstract view
.subckt sky130_fd_sc_hd__and2b_1 A_N B VGND VNB VPB VPWR X
.ends

* Black-box entry subcircuit for sky130_ef_sc_hd__decap_12 abstract view
.subckt sky130_ef_sc_hd__decap_12 VPWR VGND VPB VNB
.ends

* Black-box entry subcircuit for sky130_fd_sc_hd__decap_3 abstract view
.subckt sky130_fd_sc_hd__decap_3 VGND VNB VPB VPWR
.ends

* Black-box entry subcircuit for sky130_fd_sc_hd__dfrtp_1 abstract view
.subckt sky130_fd_sc_hd__dfrtp_1 CLK D RESET_B VGND VNB VPB VPWR Q
.ends

* Black-box entry subcircuit for sky130_fd_sc_hd__buf_2 abstract view
.subckt sky130_fd_sc_hd__buf_2 A VGND VNB VPB VPWR X
.ends

* Black-box entry subcircuit for sky130_fd_sc_hd__xnor2_1 abstract view
.subckt sky130_fd_sc_hd__xnor2_1 A B VGND VNB VPB VPWR Y
.ends

* Black-box entry subcircuit for sky130_fd_sc_hd__and2_1 abstract view
.subckt sky130_fd_sc_hd__and2_1 A B VGND VNB VPB VPWR X
.ends

* Black-box entry subcircuit for sky130_fd_sc_hd__inv_2 abstract view
.subckt sky130_fd_sc_hd__inv_2 A VGND VNB VPB VPWR Y
.ends

* Black-box entry subcircuit for sky130_fd_sc_hd__nand2_1 abstract view
.subckt sky130_fd_sc_hd__nand2_1 A B VGND VNB VPB VPWR Y
.ends

* Black-box entry subcircuit for sky130_fd_sc_hd__decap_6 abstract view
.subckt sky130_fd_sc_hd__decap_6 VGND VNB VPB VPWR
.ends

* Black-box entry subcircuit for sky130_fd_sc_hd__dlygate4sd3_1 abstract view
.subckt sky130_fd_sc_hd__dlygate4sd3_1 A VGND VNB VPB VPWR X
.ends

* Black-box entry subcircuit for sky130_fd_sc_hd__o22ai_1 abstract view
.subckt sky130_fd_sc_hd__o22ai_1 A1 A2 B1 B2 VGND VNB VPB VPWR Y
.ends

* Black-box entry subcircuit for sky130_fd_sc_hd__and3_1 abstract view
.subckt sky130_fd_sc_hd__and3_1 A B C VGND VNB VPB VPWR X
.ends

* Black-box entry subcircuit for sky130_fd_sc_hd__a221o_1 abstract view
.subckt sky130_fd_sc_hd__a221o_1 A1 A2 B1 B2 C1 VGND VNB VPB VPWR X
.ends

* Black-box entry subcircuit for sky130_fd_sc_hd__a21bo_1 abstract view
.subckt sky130_fd_sc_hd__a21bo_1 A1 A2 B1_N VGND VNB VPB VPWR X
.ends

* Black-box entry subcircuit for sky130_fd_sc_hd__o311a_1 abstract view
.subckt sky130_fd_sc_hd__o311a_1 A1 A2 A3 B1 C1 VGND VNB VPB VPWR X
.ends

* Black-box entry subcircuit for sky130_fd_sc_hd__o211a_1 abstract view
.subckt sky130_fd_sc_hd__o211a_1 A1 A2 B1 C1 VGND VNB VPB VPWR X
.ends

* Black-box entry subcircuit for sky130_fd_sc_hd__dfrtp_2 abstract view
.subckt sky130_fd_sc_hd__dfrtp_2 CLK D RESET_B VGND VNB VPB VPWR Q
.ends

* Black-box entry subcircuit for sky130_fd_sc_hd__buf_1 abstract view
.subckt sky130_fd_sc_hd__buf_1 A VGND VNB VPB VPWR X
.ends

* Black-box entry subcircuit for sky130_fd_sc_hd__or3_1 abstract view
.subckt sky130_fd_sc_hd__or3_1 A B C VGND VNB VPB VPWR X
.ends

* Black-box entry subcircuit for sky130_fd_sc_hd__or2_1 abstract view
.subckt sky130_fd_sc_hd__or2_1 A B VGND VNB VPB VPWR X
.ends

* Black-box entry subcircuit for sky130_fd_sc_hd__or2b_1 abstract view
.subckt sky130_fd_sc_hd__or2b_1 A B_N VGND VNB VPB VPWR X
.ends

* Black-box entry subcircuit for sky130_fd_sc_hd__bufinv_16 abstract view
.subckt sky130_fd_sc_hd__bufinv_16 A VGND VNB VPB VPWR Y
.ends

* Black-box entry subcircuit for sky130_fd_sc_hd__clkbuf_4 abstract view
.subckt sky130_fd_sc_hd__clkbuf_4 A VGND VNB VPB VPWR X
.ends

* Black-box entry subcircuit for sky130_fd_sc_hd__a2bb2o_1 abstract view
.subckt sky130_fd_sc_hd__a2bb2o_1 A1_N A2_N B1 B2 VGND VNB VPB VPWR X
.ends

* Black-box entry subcircuit for sky130_fd_sc_hd__inv_6 abstract view
.subckt sky130_fd_sc_hd__inv_6 A VGND VNB VPB VPWR Y
.ends

* Black-box entry subcircuit for sky130_fd_sc_hd__clkbuf_2 abstract view
.subckt sky130_fd_sc_hd__clkbuf_2 A VGND VNB VPB VPWR X
.ends

* Black-box entry subcircuit for sky130_fd_sc_hd__dfstp_1 abstract view
.subckt sky130_fd_sc_hd__dfstp_1 CLK D SET_B VGND VNB VPB VPWR Q
.ends

* Black-box entry subcircuit for sky130_fd_sc_hd__o221a_1 abstract view
.subckt sky130_fd_sc_hd__o221a_1 A1 A2 B1 B2 C1 VGND VNB VPB VPWR X
.ends

* Black-box entry subcircuit for sky130_fd_sc_hd__nor2_1 abstract view
.subckt sky130_fd_sc_hd__nor2_1 A B VGND VNB VPB VPWR Y
.ends

* Black-box entry subcircuit for sky130_fd_sc_hd__o21a_1 abstract view
.subckt sky130_fd_sc_hd__o21a_1 A1 A2 B1 VGND VNB VPB VPWR X
.ends

* Black-box entry subcircuit for sky130_fd_sc_hd__clkbuf_16 abstract view
.subckt sky130_fd_sc_hd__clkbuf_16 A VGND VNB VPB VPWR X
.ends

* Black-box entry subcircuit for sky130_fd_sc_hd__xor2_1 abstract view
.subckt sky130_fd_sc_hd__xor2_1 A B VGND VNB VPB VPWR X
.ends

* Black-box entry subcircuit for sky130_fd_sc_hd__mux2_1 abstract view
.subckt sky130_fd_sc_hd__mux2_1 A0 A1 S VGND VNB VPB VPWR X
.ends

* Black-box entry subcircuit for sky130_fd_sc_hd__or4_1 abstract view
.subckt sky130_fd_sc_hd__or4_1 A B C D VGND VNB VPB VPWR X
.ends

* Black-box entry subcircuit for sky130_fd_sc_hd__a21o_1 abstract view
.subckt sky130_fd_sc_hd__a21o_1 A1 A2 B1 VGND VNB VPB VPWR X
.ends

* Black-box entry subcircuit for sky130_fd_sc_hd__or3_4 abstract view
.subckt sky130_fd_sc_hd__or3_4 A B C VGND VNB VPB VPWR X
.ends

* Black-box entry subcircuit for sky130_fd_sc_hd__a211o_1 abstract view
.subckt sky130_fd_sc_hd__a211o_1 A1 A2 B1 C1 VGND VNB VPB VPWR X
.ends

* Black-box entry subcircuit for sky130_fd_sc_hd__a21oi_1 abstract view
.subckt sky130_fd_sc_hd__a21oi_1 A1 A2 B1 VGND VNB VPB VPWR Y
.ends

* Black-box entry subcircuit for sky130_fd_sc_hd__dlymetal6s2s_1 abstract view
.subckt sky130_fd_sc_hd__dlymetal6s2s_1 A VGND VNB VPB VPWR X
.ends

* Black-box entry subcircuit for sky130_fd_sc_hd__o32a_1 abstract view
.subckt sky130_fd_sc_hd__o32a_1 A1 A2 A3 B1 B2 VGND VNB VPB VPWR X
.ends

* Black-box entry subcircuit for sky130_fd_sc_hd__o22a_1 abstract view
.subckt sky130_fd_sc_hd__o22a_1 A1 A2 B1 B2 VGND VNB VPB VPWR X
.ends

* Black-box entry subcircuit for sky130_fd_sc_hd__or4_2 abstract view
.subckt sky130_fd_sc_hd__or4_2 A B C D VGND VNB VPB VPWR X
.ends

* Black-box entry subcircuit for sky130_fd_sc_hd__o211ai_1 abstract view
.subckt sky130_fd_sc_hd__o211ai_1 A1 A2 B1 C1 VGND VNB VPB VPWR Y
.ends

* Black-box entry subcircuit for sky130_fd_sc_hd__a221oi_1 abstract view
.subckt sky130_fd_sc_hd__a221oi_1 A1 A2 B1 B2 C1 VGND VNB VPB VPWR Y
.ends

* Black-box entry subcircuit for sky130_fd_sc_hd__a211oi_1 abstract view
.subckt sky130_fd_sc_hd__a211oi_1 A1 A2 B1 C1 VGND VNB VPB VPWR Y
.ends

* Black-box entry subcircuit for sky130_fd_sc_hd__o311ai_4 abstract view
.subckt sky130_fd_sc_hd__o311ai_4 A1 A2 A3 B1 C1 VGND VNB VPB VPWR Y
.ends

* Black-box entry subcircuit for sky130_fd_sc_hd__a2111oi_1 abstract view
.subckt sky130_fd_sc_hd__a2111oi_1 A1 A2 B1 C1 D1 VGND VNB VPB VPWR Y
.ends

* Black-box entry subcircuit for sky130_fd_sc_hd__nand2_2 abstract view
.subckt sky130_fd_sc_hd__nand2_2 A B VGND VNB VPB VPWR Y
.ends

* Black-box entry subcircuit for sky130_fd_sc_hd__xor2_2 abstract view
.subckt sky130_fd_sc_hd__xor2_2 A B VGND VNB VPB VPWR X
.ends

* Black-box entry subcircuit for sky130_fd_sc_hd__and4b_1 abstract view
.subckt sky130_fd_sc_hd__and4b_1 A_N B C D VGND VNB VPB VPWR X
.ends

* Black-box entry subcircuit for sky130_fd_sc_hd__o2111a_1 abstract view
.subckt sky130_fd_sc_hd__o2111a_1 A1 A2 B1 C1 D1 VGND VNB VPB VPWR X
.ends

* Black-box entry subcircuit for sky130_fd_sc_hd__and3b_1 abstract view
.subckt sky130_fd_sc_hd__and3b_1 A_N B C VGND VNB VPB VPWR X
.ends

* Black-box entry subcircuit for sky130_fd_sc_hd__or3b_2 abstract view
.subckt sky130_fd_sc_hd__or3b_2 A B C_N VGND VNB VPB VPWR X
.ends

* Black-box entry subcircuit for sky130_fd_sc_hd__a21boi_1 abstract view
.subckt sky130_fd_sc_hd__a21boi_1 A1 A2 B1_N VGND VNB VPB VPWR Y
.ends

* Black-box entry subcircuit for sky130_fd_sc_hd__o21ba_1 abstract view
.subckt sky130_fd_sc_hd__o21ba_1 A1 A2 B1_N VGND VNB VPB VPWR X
.ends

* Black-box entry subcircuit for sky130_fd_sc_hd__o2bb2a_1 abstract view
.subckt sky130_fd_sc_hd__o2bb2a_1 A1_N A2_N B1 B2 VGND VNB VPB VPWR X
.ends

* Black-box entry subcircuit for sky130_fd_sc_hd__dfrtp_4 abstract view
.subckt sky130_fd_sc_hd__dfrtp_4 CLK D RESET_B VGND VNB VPB VPWR Q
.ends

.subckt sscc_top VGND VPWR backup_data[0] backup_data[1] backup_data[2] backup_data[3]
+ backup_data[4] backup_data[5] backup_data[6] backup_data[7] challenge[0] challenge[1]
+ challenge[2] challenge[3] challenge[4] challenge[5] challenge[6] challenge[7] clk
+ data_in[0] data_in[1] data_in[2] data_in[3] data_in[4] data_in[5] data_in[6] data_in[7]
+ data_out[0] data_out[1] data_out[2] data_out[3] data_out[4] data_out[5] data_out[6]
+ data_out[7] fault_flag link_error rst temp[0] temp[1] temp[2] temp[3] temp[4] temp[5]
+ temp[6] temp[7]
X_363_ _150_ _151_ net43 _154_ VGND VGND VPWR VPWR _165_ sky130_fd_sc_hd__o31a_1
X_501_ _266_ VGND VGND VPWR VPWR net40 sky130_fd_sc_hd__clkbuf_1
X_294_ _098_ u6.timer\[1\] u6.timer\[0\] VGND VGND VPWR VPWR _099_ sky130_fd_sc_hd__or3b_1
X_432_ u6.state\[0\] _211_ _218_ _086_ VGND VGND VPWR VPWR _006_ sky130_fd_sc_hd__a22o_1
XFILLER_0_13_51 VGND VGND VPWR VPWR sky130_fd_sc_hd__decap_4
X_346_ _143_ _146_ _144_ _147_ VGND VGND VPWR VPWR _148_ sky130_fd_sc_hd__a31o_1
XTAP_TAPCELL_ROW_20_131 VGND VPWR sky130_fd_sc_hd__tapvpwrvgnd_1
XFILLER_0_18_29 VGND VGND VPWR VPWR sky130_fd_sc_hd__fill_1
X_415_ net25 _206_ _207_ VGND VGND VPWR VPWR _208_ sky130_fd_sc_hd__o21ai_1
XFILLER_0_20_19 VGND VGND VPWR VPWR sky130_fd_sc_hd__decap_8
XFILLER_0_4_82 VGND VGND VPWR VPWR sky130_fd_sc_hd__fill_2
XFILLER_0_28_169 VGND VGND VPWR VPWR sky130_fd_sc_hd__fill_2
X_329_ net31 u5.temp_prev\[5\] VGND VGND VPWR VPWR _131_ sky130_fd_sc_hd__and2b_1
XFILLER_0_9_27 VGND VGND VPWR VPWR sky130_fd_sc_hd__decap_8
XFILLER_0_19_169 VPWR VGND VPWR VGND sky130_ef_sc_hd__decap_12
XFILLER_0_19_94 VPWR VGND VPWR VGND sky130_ef_sc_hd__decap_12
XFILLER_0_25_117 VGND VGND VPWR VPWR sky130_fd_sc_hd__fill_1
XFILLER_0_18_191 VGND VGND VPWR VPWR sky130_fd_sc_hd__decap_3
XFILLER_0_26_29 VGND VGND VPWR VPWR sky130_fd_sc_hd__fill_1
X_594_ clknet_2_1__leaf_clk _017_ _037_ VGND VGND VPWR VPWR u3.auth_ok sky130_fd_sc_hd__dfrtp_1
Xoutput42 net42 VGND VGND VPWR VPWR fault_flag sky130_fd_sc_hd__buf_2
X_577_ clknet_2_1__leaf_clk _008_ _020_ VGND VGND VPWR VPWR u1.response\[0\] sky130_fd_sc_hd__dfrtp_1
XFILLER_0_7_60 VPWR VGND VPWR VGND sky130_ef_sc_hd__decap_12
XTAP_TAPCELL_ROW_23_140 VGND VPWR sky130_fd_sc_hd__tapvpwrvgnd_1
X_362_ _132_ _163_ VGND VGND VPWR VPWR _164_ sky130_fd_sc_hd__xnor2_1
X_500_ _093_ _265_ VGND VGND VPWR VPWR _266_ sky130_fd_sc_hd__and2_1
X_293_ u6.timer\[2\] VGND VGND VPWR VPWR _098_ sky130_fd_sc_hd__inv_2
X_431_ u6.state\[4\] _099_ _217_ u6.state\[2\] VGND VGND VPWR VPWR _218_ sky130_fd_sc_hd__a22o_1
XFILLER_0_1_175 VPWR VGND VPWR VGND sky130_ef_sc_hd__decap_12
XFILLER_0_24_73 VGND VGND VPWR VPWR sky130_fd_sc_hd__decap_8
X_345_ _116_ VGND VGND VPWR VPWR _147_ sky130_fd_sc_hd__inv_2
X_414_ u4.cnt\[2\] _202_ VGND VGND VPWR VPWR _207_ sky130_fd_sc_hd__nand2_1
XPHY_EDGE_ROW_21_Right_21 VGND VGND VPWR VPWR sky130_fd_sc_hd__decap_3
XPHY_EDGE_ROW_12_Right_12 VGND VGND VPWR VPWR sky130_fd_sc_hd__decap_3
XPHY_EDGE_ROW_30_Right_30 VGND VGND VPWR VPWR sky130_fd_sc_hd__decap_3
XFILLER_0_28_137 VGND VGND VPWR VPWR sky130_fd_sc_hd__decap_3
X_328_ u5.temp_prev\[5\] net31 VGND VGND VPWR VPWR _130_ sky130_fd_sc_hd__and2b_1
XFILLER_0_9_39 VGND VGND VPWR VPWR sky130_fd_sc_hd__decap_6
XFILLER_0_19_40 VGND VGND VPWR VPWR sky130_fd_sc_hd__decap_8
XFILLER_0_10_97 VGND VGND VPWR VPWR sky130_fd_sc_hd__fill_2
XFILLER_0_21_85 VGND VGND VPWR VPWR sky130_fd_sc_hd__decap_6
XFILLER_0_27_3 VPWR VGND VPWR VGND sky130_ef_sc_hd__decap_12
Xhold20 u5.reauth_req VGND VGND VPWR VPWR net63 sky130_fd_sc_hd__dlygate4sd3_1
X_593_ clknet_2_0__leaf_clk _016_ _036_ VGND VGND VPWR VPWR u2.stable_ok sky130_fd_sc_hd__dfrtp_1
XFILLER_0_16_85 VGND VGND VPWR VPWR sky130_fd_sc_hd__decap_8
XFILLER_0_16_52 VGND VGND VPWR VPWR sky130_fd_sc_hd__decap_4
XFILLER_0_16_41 VGND VGND VPWR VPWR sky130_fd_sc_hd__fill_1
XPHY_EDGE_ROW_16_Left_49 VGND VGND VPWR VPWR sky130_fd_sc_hd__decap_3
XFILLER_0_6_18 VGND VGND VPWR VPWR sky130_fd_sc_hd__fill_1
XFILLER_0_6_29 VGND VGND VPWR VPWR sky130_fd_sc_hd__decap_4
XPHY_EDGE_ROW_6_Right_6 VGND VGND VPWR VPWR sky130_fd_sc_hd__decap_3
XFILLER_0_8_148 VPWR VGND VPWR VGND sky130_ef_sc_hd__decap_12
X_576_ _271_ VGND VGND VPWR VPWR _070_ sky130_fd_sc_hd__inv_2
XFILLER_0_5_107 VGND VGND VPWR VPWR sky130_fd_sc_hd__fill_1
XFILLER_0_7_181 VGND VGND VPWR VPWR sky130_fd_sc_hd__decap_6
XFILLER_0_27_51 VGND VGND VPWR VPWR sky130_fd_sc_hd__decap_4
X_361_ _158_ _161_ _162_ _129_ VGND VGND VPWR VPWR _163_ sky130_fd_sc_hd__o22ai_1
X_292_ u6.timer\[1\] u6.timer\[0\] _096_ VGND VGND VPWR VPWR _097_ sky130_fd_sc_hd__and3_1
XFILLER_0_7_72 VGND VGND VPWR VPWR sky130_fd_sc_hd__fill_1
X_430_ _103_ VGND VGND VPWR VPWR _217_ sky130_fd_sc_hd__inv_2
X_559_ _277_ VGND VGND VPWR VPWR _055_ sky130_fd_sc_hd__inv_2
XFILLER_0_1_187 VGND VGND VPWR VPWR sky130_fd_sc_hd__decap_6
XPHY_EDGE_ROW_19_Left_52 VGND VGND VPWR VPWR sky130_fd_sc_hd__decap_3
X_344_ _136_ u5.temp_prev\[7\] _117_ _135_ _138_ VGND VGND VPWR VPWR _146_ sky130_fd_sc_hd__a221o_1
X_413_ _204_ _203_ _007_ VGND VGND VPWR VPWR _206_ sky130_fd_sc_hd__a21bo_1
XFILLER_0_24_85 VPWR VGND VPWR VGND sky130_ef_sc_hd__decap_12
XFILLER_0_24_41 VPWR VGND VPWR VGND sky130_ef_sc_hd__decap_12
XFILLER_0_4_62 VPWR VGND VPWR VGND sky130_ef_sc_hd__decap_12
XFILLER_0_29_19 VGND VGND VPWR VPWR sky130_fd_sc_hd__decap_3
XPHY_EDGE_ROW_4_Left_37 VGND VGND VPWR VPWR sky130_fd_sc_hd__decap_3
XFILLER_0_29_7 VPWR VGND VPWR VGND sky130_ef_sc_hd__decap_12
X_327_ _118_ _119_ _124_ _125_ _128_ VGND VGND VPWR VPWR _129_ sky130_fd_sc_hd__o311a_1
XFILLER_0_19_149 VGND VGND VPWR VPWR sky130_fd_sc_hd__fill_1
XFILLER_0_21_20 VPWR VGND VPWR VGND sky130_ef_sc_hd__decap_12
X_592_ clknet_2_1__leaf_clk u2.corrected\[7\] _035_ VGND VGND VPWR VPWR u2.prev\[7\]
+ sky130_fd_sc_hd__dfrtp_1
Xhold10 u1.response\[0\] VGND VGND VPWR VPWR net53 sky130_fd_sc_hd__dlygate4sd3_1
XFILLER_0_21_111 VGND VGND VPWR VPWR sky130_fd_sc_hd__fill_1
Xhold21 u5.trust_score\[0\] VGND VGND VPWR VPWR net64 sky130_fd_sc_hd__dlygate4sd3_1
XPHY_EDGE_ROW_7_Left_40 VGND VGND VPWR VPWR sky130_fd_sc_hd__decap_3
XFILLER_0_32_85 VGND VGND VPWR VPWR sky130_fd_sc_hd__fill_2
XFILLER_0_32_41 VGND VGND VPWR VPWR sky130_fd_sc_hd__decap_4
XFILLER_0_12_144 VPWR VGND VPWR VGND sky130_ef_sc_hd__decap_12
X_575_ _271_ VGND VGND VPWR VPWR _069_ sky130_fd_sc_hd__inv_2
XFILLER_0_9_3 VPWR VGND VPWR VGND sky130_ef_sc_hd__decap_12
X_360_ _126_ _146_ VGND VGND VPWR VPWR _162_ sky130_fd_sc_hd__nand2_1
XFILLER_0_4_141 VPWR VGND VPWR VGND sky130_ef_sc_hd__decap_12
X_291_ _086_ _087_ _089_ _095_ VGND VGND VPWR VPWR _096_ sky130_fd_sc_hd__o211a_1
XFILLER_0_13_98 VGND VGND VPWR VPWR sky130_fd_sc_hd__decap_3
X_489_ _258_ VGND VGND VPWR VPWR net36 sky130_fd_sc_hd__clkbuf_1
X_558_ _277_ VGND VGND VPWR VPWR _054_ sky130_fd_sc_hd__inv_2
X_627_ clknet_2_2__leaf_clk _006_ _070_ VGND VGND VPWR VPWR u6.state\[4\] sky130_fd_sc_hd__dfrtp_2
XFILLER_0_1_166 VGND VGND VPWR VPWR sky130_fd_sc_hd__fill_2
XTAP_TAPCELL_ROW_3_80 VGND VPWR sky130_fd_sc_hd__tapvpwrvgnd_1
X_343_ _143_ _144_ VGND VGND VPWR VPWR _145_ sky130_fd_sc_hd__nand2_1
X_412_ _205_ VGND VGND VPWR VPWR _007_ sky130_fd_sc_hd__buf_1
XFILLER_0_24_97 VPWR VGND VPWR VGND sky130_ef_sc_hd__decap_12
XFILLER_0_24_53 VPWR VGND VPWR VGND sky130_ef_sc_hd__decap_12
XPHY_EDGE_ROW_20_Left_53 VGND VGND VPWR VPWR sky130_fd_sc_hd__decap_3
XFILLER_0_4_74 VGND VGND VPWR VPWR sky130_fd_sc_hd__decap_8
XFILLER_0_4_85 VPWR VGND VPWR VGND sky130_ef_sc_hd__decap_12
X_326_ _126_ _127_ VGND VGND VPWR VPWR _128_ sky130_fd_sc_hd__and2_1
XTAP_TAPCELL_ROW_0_70 VGND VPWR sky130_fd_sc_hd__tapvpwrvgnd_1
XFILLER_0_19_106 VGND VGND VPWR VPWR sky130_fd_sc_hd__decap_6
XFILLER_0_21_32 VPWR VGND VPWR VGND sky130_ef_sc_hd__decap_12
XFILLER_0_21_10 VGND VGND VPWR VPWR sky130_fd_sc_hd__decap_6
X_309_ u5.trust_score\[2\] u5.trust_score\[1\] u5.trust_score\[0\] VGND VGND VPWR
+ VPWR _111_ sky130_fd_sc_hd__or3_1
XFILLER_0_15_153 VGND VGND VPWR VPWR sky130_fd_sc_hd__fill_1
X_591_ clknet_2_1__leaf_clk u2.corrected\[6\] _034_ VGND VGND VPWR VPWR u2.prev\[6\]
+ sky130_fd_sc_hd__dfrtp_1
XFILLER_0_21_145 VPWR VGND VPWR VGND sky130_ef_sc_hd__decap_12
Xhold22 u5.severe_prev VGND VGND VPWR VPWR net65 sky130_fd_sc_hd__dlygate4sd3_1
Xhold11 u6.state\[1\] VGND VGND VPWR VPWR net54 sky130_fd_sc_hd__dlygate4sd3_1
XFILLER_0_16_76 VGND VGND VPWR VPWR sky130_fd_sc_hd__decap_8
XFILLER_0_12_156 VGND VGND VPWR VPWR sky130_fd_sc_hd__decap_4
XFILLER_0_12_101 VGND VGND VPWR VPWR sky130_fd_sc_hd__fill_1
XFILLER_0_8_117 VGND VGND VPWR VPWR sky130_fd_sc_hd__decap_3
XFILLER_0_8_139 VGND VGND VPWR VPWR sky130_fd_sc_hd__fill_1
Xoutput34 net34 VGND VGND VPWR VPWR data_out[0] sky130_fd_sc_hd__buf_2
XFILLER_0_7_150 VGND VGND VPWR VPWR sky130_fd_sc_hd__decap_4
XFILLER_0_27_64 VGND VGND VPWR VPWR sky130_fd_sc_hd__decap_6
X_574_ _271_ VGND VGND VPWR VPWR _068_ sky130_fd_sc_hd__inv_2
XTAP_TAPCELL_ROW_32_165 VGND VPWR sky130_fd_sc_hd__tapvpwrvgnd_1
XFILLER_0_4_153 VGND VGND VPWR VPWR sky130_fd_sc_hd__fill_1
X_488_ _252_ _257_ VGND VGND VPWR VPWR _258_ sky130_fd_sc_hd__and2_1
XFILLER_0_13_55 VGND VGND VPWR VPWR sky130_fd_sc_hd__fill_1
X_626_ clknet_2_2__leaf_clk _005_ _069_ VGND VGND VPWR VPWR u6.state\[3\] sky130_fd_sc_hd__dfrtp_1
X_290_ net62 _094_ VGND VGND VPWR VPWR _095_ sky130_fd_sc_hd__nand2_1
X_557_ _277_ VGND VGND VPWR VPWR _053_ sky130_fd_sc_hd__inv_2
X_342_ _141_ _142_ VGND VGND VPWR VPWR _144_ sky130_fd_sc_hd__or2_1
X_411_ u4.cnt\[2\] u4.cnt\[1\] VGND VGND VPWR VPWR _205_ sky130_fd_sc_hd__or2_1
XTAP_TAPCELL_ROW_11_102 VGND VPWR sky130_fd_sc_hd__tapvpwrvgnd_1
X_609_ clknet_2_2__leaf_clk _019_ _052_ VGND VGND VPWR VPWR u5.reauth_req sky130_fd_sc_hd__dfrtp_1
XFILLER_0_4_20 VGND VGND VPWR VPWR sky130_fd_sc_hd__decap_4
XFILLER_0_4_97 VPWR VGND VPWR VGND sky130_ef_sc_hd__decap_12
X_325_ u5.temp_prev\[4\] net30 VGND VGND VPWR VPWR _127_ sky130_fd_sc_hd__or2b_1
XTAP_TAPCELL_ROW_0_71 VGND VPWR sky130_fd_sc_hd__tapvpwrvgnd_1
XFILLER_0_18_173 VGND VGND VPWR VPWR sky130_fd_sc_hd__fill_1
Xclkload0 clknet_2_0__leaf_clk VGND VGND VPWR VPWR clkload0/Y sky130_fd_sc_hd__bufinv_16
XFILLER_0_24_121 VGND VGND VPWR VPWR sky130_fd_sc_hd__fill_1
XFILLER_0_21_44 VPWR VGND VPWR VGND sky130_ef_sc_hd__decap_12
X_308_ _108_ u5.trust_score\[0\] _109_ _092_ VGND VGND VPWR VPWR _110_ sky130_fd_sc_hd__a31o_1
XFILLER_0_30_113 VGND VGND VPWR VPWR sky130_fd_sc_hd__fill_1
X_590_ clknet_2_1__leaf_clk u2.corrected\[5\] _033_ VGND VGND VPWR VPWR u2.prev\[5\]
+ sky130_fd_sc_hd__dfrtp_1
Xhold12 u4.cnt\[2\] VGND VGND VPWR VPWR net55 sky130_fd_sc_hd__dlygate4sd3_1
XFILLER_0_32_98 VGND VGND VPWR VPWR sky130_fd_sc_hd__fill_2
XFILLER_0_32_65 VGND VGND VPWR VPWR sky130_fd_sc_hd__fill_1
XFILLER_0_32_21 VGND VGND VPWR VPWR sky130_fd_sc_hd__decap_3
XFILLER_0_21_157 VGND VGND VPWR VPWR sky130_fd_sc_hd__fill_1
Xoutput35 net35 VGND VGND VPWR VPWR data_out[1] sky130_fd_sc_hd__clkbuf_4
XFILLER_0_25_3 VGND VGND VPWR VPWR sky130_fd_sc_hd__fill_2
XFILLER_0_20_190 VGND VGND VPWR VPWR sky130_fd_sc_hd__decap_4
XPHY_EDGE_ROW_28_Right_28 VGND VGND VPWR VPWR sky130_fd_sc_hd__decap_3
XPHY_EDGE_ROW_19_Right_19 VGND VGND VPWR VPWR sky130_fd_sc_hd__decap_3
X_573_ _279_ VGND VGND VPWR VPWR _067_ sky130_fd_sc_hd__inv_2
XTAP_TAPCELL_ROW_32_166 VGND VPWR sky130_fd_sc_hd__tapvpwrvgnd_1
X_625_ clknet_2_2__leaf_clk _004_ _068_ VGND VGND VPWR VPWR u6.state\[2\] sky130_fd_sc_hd__dfrtp_2
X_487_ _221_ net3 net19 _216_ VGND VGND VPWR VPWR _257_ sky130_fd_sc_hd__a22o_1
XTAP_TAPCELL_ROW_14_111 VGND VPWR sky130_fd_sc_hd__tapvpwrvgnd_1
X_556_ _277_ VGND VGND VPWR VPWR _052_ sky130_fd_sc_hd__inv_2
XFILLER_0_1_157 VGND VGND VPWR VPWR sky130_fd_sc_hd__fill_1
X_341_ _141_ _142_ VGND VGND VPWR VPWR _143_ sky130_fd_sc_hd__nand2_1
X_410_ u4.cnt\[1\] u4.cnt\[0\] VGND VGND VPWR VPWR _204_ sky130_fd_sc_hd__nand2_1
XTAP_TAPCELL_ROW_11_103 VGND VPWR sky130_fd_sc_hd__tapvpwrvgnd_1
X_539_ rst VGND VGND VPWR VPWR _275_ sky130_fd_sc_hd__clkbuf_4
X_608_ clknet_2_2__leaf_clk _074_ _051_ VGND VGND VPWR VPWR u4.cnt\[2\] sky130_fd_sc_hd__dfrtp_1
X_324_ net30 u5.temp_prev\[4\] VGND VGND VPWR VPWR _126_ sky130_fd_sc_hd__or2b_1
XFILLER_0_19_11 VGND VGND VPWR VPWR sky130_fd_sc_hd__fill_2
XFILLER_0_19_66 VGND VGND VPWR VPWR sky130_fd_sc_hd__fill_1
XFILLER_0_18_141 VPWR VGND VPWR VGND sky130_ef_sc_hd__decap_12
Xclkload1 clknet_2_2__leaf_clk VGND VGND VPWR VPWR clkload1/Y sky130_fd_sc_hd__bufinv_16
XFILLER_0_24_155 VGND VGND VPWR VPWR sky130_fd_sc_hd__fill_2
X_307_ _090_ u5.trust_score\[1\] VGND VGND VPWR VPWR _109_ sky130_fd_sc_hd__and2_1
XFILLER_0_1_55 VGND VGND VPWR VPWR sky130_fd_sc_hd__fill_1
XFILLER_0_30_147 VPWR VGND VPWR VGND sky130_ef_sc_hd__decap_12
XFILLER_0_15_133 VPWR VGND VPWR VGND sky130_ef_sc_hd__decap_12
Xhold13 u6.timer\[2\] VGND VGND VPWR VPWR net56 sky130_fd_sc_hd__dlygate4sd3_1
XFILLER_0_32_55 VGND VGND VPWR VPWR sky130_fd_sc_hd__fill_1
XFILLER_0_21_136 VGND VGND VPWR VPWR sky130_fd_sc_hd__fill_2
XFILLER_0_16_56 VGND VGND VPWR VPWR sky130_fd_sc_hd__fill_1
XFILLER_0_7_130 VGND VGND VPWR VPWR sky130_fd_sc_hd__decap_3
Xoutput36 net36 VGND VGND VPWR VPWR data_out[2] sky130_fd_sc_hd__buf_2
X_572_ _279_ VGND VGND VPWR VPWR _066_ sky130_fd_sc_hd__inv_2
XTAP_TAPCELL_ROW_32_167 VGND VPWR sky130_fd_sc_hd__tapvpwrvgnd_1
XFILLER_0_27_99 VPWR VGND VPWR VGND sky130_ef_sc_hd__decap_12
XFILLER_0_27_55 VGND VGND VPWR VPWR sky130_fd_sc_hd__fill_1
XTAP_TAPCELL_ROW_17_120 VGND VPWR sky130_fd_sc_hd__tapvpwrvgnd_1
XFILLER_0_4_133 VGND VGND VPWR VPWR sky130_fd_sc_hd__fill_1
XFILLER_0_4_188 VGND VGND VPWR VPWR sky130_fd_sc_hd__decap_3
XFILLER_0_7_32 VGND VGND VPWR VPWR sky130_fd_sc_hd__decap_6
XFILLER_0_7_54 VGND VGND VPWR VPWR sky130_fd_sc_hd__fill_2
XFILLER_0_7_3 VPWR VGND VPWR VGND sky130_ef_sc_hd__decap_12
X_486_ _256_ VGND VGND VPWR VPWR net35 sky130_fd_sc_hd__clkbuf_1
XTAP_TAPCELL_ROW_14_112 VGND VPWR sky130_fd_sc_hd__tapvpwrvgnd_1
X_624_ clknet_2_2__leaf_clk _003_ _067_ VGND VGND VPWR VPWR u6.state\[1\] sky130_fd_sc_hd__dfrtp_1
X_555_ _277_ VGND VGND VPWR VPWR _051_ sky130_fd_sc_hd__inv_2
X_340_ u5.temp_prev\[6\] _137_ VGND VGND VPWR VPWR _142_ sky130_fd_sc_hd__or2_1
X_538_ _274_ VGND VGND VPWR VPWR _037_ sky130_fd_sc_hd__inv_2
X_607_ clknet_2_3__leaf_clk _073_ _050_ VGND VGND VPWR VPWR u4.cnt\[1\] sky130_fd_sc_hd__dfrtp_1
XTAP_TAPCELL_ROW_11_104 VGND VPWR sky130_fd_sc_hd__tapvpwrvgnd_1
X_469_ u2.prev\[4\] net13 net15 u2.prev\[6\] VGND VGND VPWR VPWR _243_ sky130_fd_sc_hd__a2bb2o_1
XFILLER_0_4_55 VGND VGND VPWR VPWR sky130_fd_sc_hd__decap_4
XFILLER_0_28_109 VPWR VGND VPWR VGND sky130_ef_sc_hd__decap_12
X_323_ u5.temp_prev\[3\] net29 VGND VGND VPWR VPWR _125_ sky130_fd_sc_hd__or2b_1
XPHY_EDGE_ROW_24_Left_57 VGND VGND VPWR VPWR sky130_fd_sc_hd__decap_3
XFILLER_0_18_153 VPWR VGND VPWR VGND sky130_ef_sc_hd__decap_12
Xclkload2 clknet_2_3__leaf_clk VGND VGND VPWR VPWR clkload2/Y sky130_fd_sc_hd__inv_6
XFILLER_0_21_57 VGND VGND VPWR VPWR sky130_fd_sc_hd__decap_8
X_306_ u5.trust_score\[3\] VGND VGND VPWR VPWR _108_ sky130_fd_sc_hd__clkbuf_2
XFILLER_0_30_159 VPWR VGND VPWR VGND sky130_ef_sc_hd__decap_12
XFILLER_0_15_189 VGND VGND VPWR VPWR sky130_fd_sc_hd__fill_1
XFILLER_0_15_145 VGND VGND VPWR VPWR sky130_fd_sc_hd__decap_8
Xhold14 u6.state\[2\] VGND VGND VPWR VPWR net57 sky130_fd_sc_hd__dlygate4sd3_1
XPHY_EDGE_ROW_27_Left_60 VGND VGND VPWR VPWR sky130_fd_sc_hd__decap_3
XPHY_EDGE_ROW_11_Left_44 VGND VGND VPWR VPWR sky130_fd_sc_hd__decap_3
XPHY_EDGE_ROW_1_Right_1 VGND VGND VPWR VPWR sky130_fd_sc_hd__decap_3
Xoutput37 net37 VGND VGND VPWR VPWR data_out[3] sky130_fd_sc_hd__buf_2
X_571_ _279_ VGND VGND VPWR VPWR _065_ sky130_fd_sc_hd__inv_2
XTAP_TAPCELL_ROW_32_168 VGND VPWR sky130_fd_sc_hd__tapvpwrvgnd_1
XTAP_TAPCELL_ROW_17_121 VGND VPWR sky130_fd_sc_hd__tapvpwrvgnd_1
XFILLER_0_30_3 VPWR VGND VPWR VGND sky130_ef_sc_hd__decap_12
XFILLER_0_7_77 VPWR VGND VPWR VGND sky130_ef_sc_hd__decap_12
X_485_ _252_ _255_ VGND VGND VPWR VPWR _256_ sky130_fd_sc_hd__and2_1
XTAP_TAPCELL_ROW_14_113 VGND VPWR sky130_fd_sc_hd__tapvpwrvgnd_1
X_554_ _277_ VGND VGND VPWR VPWR _050_ sky130_fd_sc_hd__inv_2
X_623_ clknet_2_2__leaf_clk _002_ _066_ VGND VGND VPWR VPWR u6.state\[0\] sky130_fd_sc_hd__dfstp_1
X_468_ u2.prev\[2\] _240_ net15 u2.prev\[6\] _241_ VGND VGND VPWR VPWR _242_ sky130_fd_sc_hd__o221a_1
X_537_ _274_ VGND VGND VPWR VPWR _036_ sky130_fd_sc_hd__inv_2
X_606_ clknet_2_3__leaf_clk _072_ _049_ VGND VGND VPWR VPWR u4.cnt\[0\] sky130_fd_sc_hd__dfrtp_1
X_399_ _109_ _195_ VGND VGND VPWR VPWR _196_ sky130_fd_sc_hd__nor2_1
X_322_ u5.temp_prev\[0\] _120_ _121_ _122_ _123_ VGND VGND VPWR VPWR _124_ sky130_fd_sc_hd__o311a_1
XFILLER_0_27_176 VPWR VGND VPWR VGND sky130_ef_sc_hd__decap_12
XFILLER_0_27_165 VGND VGND VPWR VPWR sky130_fd_sc_hd__decap_3
XFILLER_0_18_165 VGND VGND VPWR VPWR sky130_fd_sc_hd__decap_8
X_305_ net60 _106_ _107_ VGND VGND VPWR VPWR _082_ sky130_fd_sc_hd__o21a_1
XFILLER_0_15_157 VGND VGND VPWR VPWR sky130_fd_sc_hd__decap_8
XFILLER_0_1_13 VPWR VGND VPWR VGND sky130_ef_sc_hd__decap_12
XFILLER_0_21_127 VGND VGND VPWR VPWR sky130_fd_sc_hd__fill_1
Xhold15 u5.trust_score\[6\] VGND VGND VPWR VPWR net58 sky130_fd_sc_hd__dlygate4sd3_1
XFILLER_0_32_57 VGND VGND VPWR VPWR sky130_fd_sc_hd__decap_8
XFILLER_0_32_13 VGND VGND VPWR VPWR sky130_fd_sc_hd__decap_8
XFILLER_0_12_138 VGND VGND VPWR VPWR sky130_fd_sc_hd__fill_2
Xoutput38 net38 VGND VGND VPWR VPWR data_out[4] sky130_fd_sc_hd__clkbuf_4
X_570_ _279_ VGND VGND VPWR VPWR _064_ sky130_fd_sc_hd__inv_2
XFILLER_0_7_154 VGND VGND VPWR VPWR sky130_fd_sc_hd__fill_1
XTAP_TAPCELL_ROW_17_122 VGND VPWR sky130_fd_sc_hd__tapvpwrvgnd_1
Xclkbuf_0_clk clk VGND VGND VPWR VPWR clknet_0_clk sky130_fd_sc_hd__clkbuf_16
XTAP_TAPCELL_ROW_32_169 VGND VPWR sky130_fd_sc_hd__tapvpwrvgnd_1
XPHY_EDGE_ROW_24_Right_24 VGND VGND VPWR VPWR sky130_fd_sc_hd__decap_3
XFILLER_0_23_3 VPWR VGND VPWR VGND sky130_ef_sc_hd__decap_12
XPHY_EDGE_ROW_15_Right_15 VGND VGND VPWR VPWR sky130_fd_sc_hd__decap_3
XFILLER_0_4_168 VPWR VGND VPWR VGND sky130_ef_sc_hd__decap_12
XFILLER_0_7_89 VPWR VGND VPWR VGND sky130_ef_sc_hd__decap_12
X_484_ _221_ net2 net18 _216_ VGND VGND VPWR VPWR _255_ sky130_fd_sc_hd__a22o_1
XFILLER_0_13_15 VPWR VGND VPWR VGND sky130_ef_sc_hd__decap_12
X_622_ clknet_2_2__leaf_clk _084_ _065_ VGND VGND VPWR VPWR u6.timer\[2\] sky130_fd_sc_hd__dfrtp_1
X_553_ rst VGND VGND VPWR VPWR _277_ sky130_fd_sc_hd__buf_2
X_536_ _274_ VGND VGND VPWR VPWR _035_ sky130_fd_sc_hd__inv_2
X_467_ _231_ net14 VGND VGND VPWR VPWR _241_ sky130_fd_sc_hd__nand2_1
X_605_ clknet_2_3__leaf_clk net33 _048_ VGND VGND VPWR VPWR u5.temp_prev\[7\] sky130_fd_sc_hd__dfrtp_2
XFILLER_0_4_24 VGND VGND VPWR VPWR sky130_fd_sc_hd__fill_1
X_398_ _090_ u5.trust_score\[1\] VGND VGND VPWR VPWR _195_ sky130_fd_sc_hd__nor2_1
X_321_ u5.temp_prev\[2\] net28 VGND VGND VPWR VPWR _123_ sky130_fd_sc_hd__xnor2_1
XFILLER_0_27_188 VGND VGND VPWR VPWR sky130_fd_sc_hd__decap_6
XFILLER_0_27_111 VGND VGND VPWR VPWR sky130_fd_sc_hd__fill_1
X_519_ _272_ VGND VGND VPWR VPWR _020_ sky130_fd_sc_hd__inv_2
X_304_ u6.timer\[0\] _096_ VGND VGND VPWR VPWR _107_ sky130_fd_sc_hd__nand2_1
XFILLER_0_24_147 VGND VGND VPWR VPWR sky130_fd_sc_hd__decap_8
XFILLER_0_11_92 VGND VGND VPWR VPWR sky130_fd_sc_hd__fill_1
Xhold16 u5.low_trust VGND VGND VPWR VPWR net59 sky130_fd_sc_hd__dlygate4sd3_1
XFILLER_0_20_161 VGND VGND VPWR VPWR sky130_fd_sc_hd__fill_2
XFILLER_0_16_26 VGND VGND VPWR VPWR sky130_fd_sc_hd__fill_2
XFILLER_0_7_122 VGND VGND VPWR VPWR sky130_fd_sc_hd__decap_8
Xoutput39 net39 VGND VGND VPWR VPWR data_out[5] sky130_fd_sc_hd__buf_2
XFILLER_0_17_91 VGND VGND VPWR VPWR sky130_fd_sc_hd__fill_1
X_483_ _254_ VGND VGND VPWR VPWR net34 sky130_fd_sc_hd__clkbuf_1
X_552_ _276_ VGND VGND VPWR VPWR _049_ sky130_fd_sc_hd__inv_2
XFILLER_0_13_27 VPWR VGND VPWR VGND sky130_ef_sc_hd__decap_12
X_621_ clknet_2_2__leaf_clk _083_ _064_ VGND VGND VPWR VPWR u6.timer\[1\] sky130_fd_sc_hd__dfrtp_1
XTAP_TAPCELL_ROW_20_129 VGND VPWR sky130_fd_sc_hd__tapvpwrvgnd_1
XFILLER_0_0_183 VGND VGND VPWR VPWR sky130_fd_sc_hd__fill_2
X_535_ _274_ VGND VGND VPWR VPWR _034_ sky130_fd_sc_hd__inv_2
X_604_ clknet_2_3__leaf_clk net32 _047_ VGND VGND VPWR VPWR u5.temp_prev\[6\] sky130_fd_sc_hd__dfrtp_1
XFILLER_0_24_26 VGND VGND VPWR VPWR sky130_fd_sc_hd__fill_2
X_466_ net11 VGND VGND VPWR VPWR _240_ sky130_fd_sc_hd__inv_2
Xclkbuf_2_0__f_clk clknet_0_clk VGND VGND VPWR VPWR clknet_2_0__leaf_clk sky130_fd_sc_hd__clkbuf_16
X_397_ _194_ VGND VGND VPWR VPWR _077_ sky130_fd_sc_hd__clkbuf_1